code/data/casedata/data_init/aus-data/LF_Case05_R4_S.m
function mpc = LF_Case05_R4_S
%LF_CASE05_R4_S
%   PSS(R)E 29 RAW created by rawd29  MON, FEB 17 2014  18:49
%   LF_CASE05_R3_S  14 GEN, SIMPLIFIED MODEL OF 4-STATE SYSTEM
%   MEDLD+PUMP AREA4->AREA2<-AREA3->AREA5 300-200-250
%
%   Converted by MATPOWER 7.0b1 using PSSE2MPC on 08-Jun-2019
%   from 'LF_Case05_R4_S.raw' using PSS/E rev 29 format.
%
%   WARNINGS:
%       Section label mismatch, found 'VSC DC LINE', expected 'VOLTAGE SOURCE CONVERTER'
%       Section label mismatch, found 'FACTS DEVICE', expected 'FACTS CONTROL DEVICE'
%       Using default voltage magnitude limits: VMIN = 0.9 p.u., VMAX = 1.1 p.u.
%
%   See CASEFORMAT for details on the MATPOWER case file format.

%% MATPOWER Case Format : Version 2
mpc.version = '2';

%%-----  Power Flow Data  -----%%
%% system MVA base
mpc.baseMVA = 100;

%% bus data
%	bus_i	type	Pd	Qd	Gs	Bs	area	Vm	Va	baseKV	zone	Vmax	Vmin
mpc.bus = [
	101	2	0	0	0	0	1	1	-34.8374	15	1	1.1	0.9;
	102	1	340	35	0	0	1	1.01192	-30.7573	330	1	1.1	0.9;
	201	2	0	0	0	0	2	1	6.6377	20	1	1.1	0.9;
	202	2	0	0	0	0	2	1	-1.6055	20	1	1.1	0.9;
	203	2	0	0	0	0	2	1	-5.2144	20	1	1.1	0.9;
	204	3	0	0	0	0	2	1	0	20	1	1.1	0.9;
	205	2	290	30	0	0	2	1.045	-0.1466	330	1	1.1	0.9;
	206	1	100	10	0	0	2	1.02926	-0.6459	330	1	1.1	0.9;
	207	1	1410	145	0	0	2	1.00881	-11.4949	330	1	1.1	0.9;
	208	1	160	20	0	0	2	1.01454	-12.9559	330	1	1.1	0.9;
	209	1	0	0	0	0	2	1.02004	-9.1664	330	1	1.1	0.9;
	210	1	0	0	0	0	2	1.05053	-11.99	500	1	1.1	0.9;
	211	1	1275	130	0	0	2	1.0113	-18.1414	330	1	1.1	0.9;
	212	1	1245	125	0	400	2	1.01666	-17.8022	330	1	1.1	0.9;
	213	1	0	0	0	0	2	1.04309	-14.9884	500	1	1.1	0.9;
	214	1	0	0	0	0	2	1.03141	-17.8606	330	1	1.1	0.9;
	215	1	360	40	0	0	2	1.02469	-6.9801	330	1	1.1	0.9;
	216	1	1380	140	0	300	2	1.02452	-19.7406	330	1	1.1	0.9;
	217	1	940	95	0	0	2	1.01231	-23.9397	330	1	1.1	0.9;
	301	2	0	0	0	0	3	1	-2.6394	20	1	1.1	0.9;
	302	2	0	0	0	0	3	1	-14.3288	20	1	1.1	0.9;
	303	1	0	0	0	0	3	1.02758	-9.7342	500	1	1.1	0.9;
	304	1	0	0	0	0	3	1.00906	-21.097	500	1	1.1	0.9;
	305	1	0	0	0	0	3	1.0191	-22.5877	500	1	1.1	0.9;
	306	1	1085	110	0	0	3	1.02056	-24.3762	500	1	1.1	0.9;
	307	1	580	60	0	0	3	1.02321	-24.3805	500	1	1.1	0.9;
	308	1	580	60	0	0	3	1.05049	-31.7609	500	1	1.1	0.9;
	309	1	170	20	0	0	3	1.02293	-29.1694	330	1	1.1	0.9;
	310	1	0	0	0	0	3	1.01212	-21.5711	330	1	1.1	0.9;
	311	1	0	0	0	0	3	1.03772	-25.0417	330	1	1.1	0.9;
	312	1	105	15	0	0	3	1.03181	-20.5127	220	1	1.1	0.9;
	313	2	2130	220	0	0	3	1.015	-28.0344	220	1	1.1	0.9;
	314	1	222	25	0	0	3	1.01675	-26.8631	220	1	1.1	0.9;
	315	1	0	0	0	0	3	1.04707	-33.5134	275	1	1.1	0.9;
	401	2	0	0	0	0	4	1	20.8208	20	1	1.1	0.9;
	402	2	0	0	0	0	4	1	49.8063	20	1	1.1	0.9;
	403	2	0	0	0	0	4	1	53.5283	20	1	1.1	0.9;
	404	2	0	0	0	0	4	1	47.0741	20	1	1.1	0.9;
	405	1	990	100	0	0	4	1.03397	39.733	275	1	1.1	0.9;
	406	1	740	75	0	0	4	1.03583	45.1429	275	1	1.1	0.9;
	407	1	0	0	0	0	4	1.04084	47.4921	275	1	1.1	0.9;
	408	1	150	15	0	0	4	1.03688	42.2693	275	1	1.1	0.9;
	409	1	260	30	0	60	4	1.00362	19.7786	275	1	1.1	0.9;
	410	1	530	55	0	0	4	1.0287	14.6049	275	1	1.1	0.9;
	411	1	575	60	0	30	4	0.99742	7.8867	275	1	1.1	0.9;
	412	2	1255	130	0	0	4	1	6.9244	275	1	1.1	0.9;
	413	1	0	0	0	0	4	1.05247	10.2137	275	1	1.1	0.9;
	414	1	0	0	0	-30	4	1.03942	9.7541	330	1	1.1	0.9;
	415	1	0	0	0	-60	4	1.04779	7.5743	330	1	1.1	0.9;
	416	1	0	0	0	-60	4	1.05445	3.673	330	1	1.1	0.9;
	501	2	0	0	0	0	5	1	-33.4105	20	1	1.1	0.9;
	502	2	0	0	0	0	5	1	-33.0178	15	1	1.1	0.9;
	503	2	0	0	0	0	5	1	-37.2042	15	1	1.1	0.9;
	504	1	225	25	0	0	5	1.04224	-41.1683	275	1	1.1	0.9;
	505	1	0	0	0	0	5	1.0122	-39.883	275	1	1.1	0.9;
	506	1	0	0	0	0	5	1.01517	-42.0475	275	1	1.1	0.9;
	507	2	750	75	0	0	5	1.015	-42.5626	275	1	1.1	0.9;
	508	1	600	60	0	0	5	1.01056	-43.0584	275	1	1.1	0.9;
	509	2	150	15	0	0	5	1.03	-36.7437	275	1	1.1	0.9;
];

%% generator data
%	bus	Pg	Qg	Qmax	Qmin	Vg	mBase	status	Pmax	Pmin	Pc1	Pc2	Qc1min	Qc1max	Qc2min	Qc2max	ramp_agc	ramp_10	ramp_30	ramp_q	apf
mpc.gen = [
	101	-600	-77.957	435.846	-435.846	1	999.9	1	900	0	0	0	0	0	0	0	0	0	0	0	0;
	201	2800	193.445	1453.04	-1453.04	1	3333.5	1	3000	0	0	0	0	0	0	0	0	0	0	0	0;
	202	1920	268.884	968.72	-968.72	1	2222.4	1	2000	0	0	0	0	0	0	0	0	0	0	0	0;
	203	920	166.124	484.36	-484.36	1	1111.2	1	1000	0	0	0	0	0	0	0	0	0	0	0	0;
	204	2137.635	220.967	1162.432	-1162.432	1	2666.8	1	2400	0	0	0	0	0	0	0	0	0	0	0	0;
	205	0	-118.315	430	-220	1.045	650	1	0	0	0	0	0	0	0	0	0	0	0	0	0;
	301	4400	704.745	2324.864	-2324.864	1	5333.6	1	4800	0	0	0	0	0	0	0	0	0	0	0	0;
	302	1026	131.429	581.127	-581.127	1	1333.2	1	1200	0	0	0	0	0	0	0	0	0	0	0	0;
	313	0	54.861	600	-200	1.015	800	1	0	0	0	0	0	0	0	0	0	0	0	0	0;
	401	1384	339.579	774.836	-774.836	1	1777.6	1	1600	0	0	0	0	0	0	0	0	0	0	0	0;
	402	840	136.25	435.846	-435.846	1	999.9	1	900	0	0	0	0	0	0	0	0	0	0	0	0;
	403	1360	185.293	774.836	-774.836	1	1777.6	1	1600	0	0	0	0	0	0	0	0	0	0	0	0;
	404	1360	252.042	726.41	-726.41	1	1666.5	1	1500	0	0	0	0	0	0	0	0	0	0	0	0;
	412	0	22.828	1100	-330	1	1430	1	0	0	0	0	0	0	0	0	0	0	0	0	0;
	501	560	-70.361	290.564	-290.564	1	666.6	1	600	0	0	0	0	0	0	0	0	0	0	0	0;
	502	760	0.532	600	-600	1	1000	1	800	0	0	0	0	0	0	0	0	0	0	0	0;
	503	174	7.05	145.326	-145.326	1	333.4	1	300	0	0	0	0	0	0	0	0	0	0	0	0;
	507	0	13.793	320	-180	1.015	500	1	0	0	0	0	0	0	0	0	0	0	0	0	0;
	509	0	-123.834	400	-150	1.03	550	1	0	0	0	0	0	0	0	0	0	0	0	0	0;
];

%% branch data
%	fbus	tbus	r	x	b	rateA	rateB	rateC	ratio	angle	status	angmin	angmax
mpc.branch = [
	102	217	0.0084	0.0667	0.817	0	0	0	0	0	1	-360	360;
	102	217	0.0084	0.0667	0.817	0	0	0	0	0	1	-360	360;
	102	217	0.0078	0.062	0.76	0	0	0	0	0	1	-360	360;
	102	217	0.0078	0.062	0.76	0	0	0	0	0	1	-360	360;
	102	309	0.0045	0.0356	0.437	0	0	0	0	0	1	-360	360;
	102	309	0.0045	0.0356	0.437	0	0	0	0	0	1	-360	360;
	102	309	0.0109	0.0868	0.76	0	0	0	0	0	1	-360	360;
	205	206	0.0096	0.076	0.931	0	0	0	0	0	1	-360	360;
	205	206	0.0096	0.076	0.931	0	0	0	0	0	1	-360	360;
	205	416	0.0037	0.046	0.73	0	0	0	0	0	1	-360	360;
	205	416	0.0037	0.046	0.73	0	0	0	0	0	1	-360	360;
	206	207	0.0045	0.0356	0.437	0	0	0	0	0	1	-360	360;
	206	207	0.0045	0.0356	0.437	0	0	0	0	0	1	-360	360;
	206	212	0.0066	0.0527	0.646	0	0	0	0	0	1	-360	360;
	206	212	0.0066	0.0527	0.646	0	0	0	0	0	1	-360	360;
	206	215	0.0066	0.0527	0.646	0	0	0	0	0	1	-360	360;
	206	215	0.0066	0.0527	0.646	0	0	0	0	0	1	-360	360;
	207	208	0.0018	0.014	0.171	0	0	0	0	0	1	-360	360;
	207	208	0.0018	0.014	0.171	0	0	0	0	0	1	-360	360;
	207	209	0.0008	0.0062	0.076	0	0	0	0	0	1	-360	360;
	208	211	0.0031	0.0248	0.304	0	0	0	0	0	1	-360	360;
	208	211	0.0031	0.0248	0.304	0	0	0	0	0	1	-360	360;
	208	211	0.0031	0.0248	0.304	0	0	0	0	0	1	-360	360;
	209	212	0.0045	0.0356	0.437	0	0	0	0	0	1	-360	360;
	210	213	0.001	0.0145	1.54	0	0	0	0	0	1	-360	360;
	210	213	0.001	0.0145	1.54	0	0	0	0	0	1	-360	360;
	211	212	0.0014	0.0108	0.133	0	0	0	0	0	1	-360	360;
	211	212	0.0014	0.0108	0.133	0	0	0	0	0	1	-360	360;
	211	214	0.0019	0.0155	0.19	0	0	0	0	0	1	-360	360;
	212	217	0.007	0.0558	0.684	0	0	0	0	0	1	-360	360;
	214	216	0.001	0.0077	0.095	0	0	0	0	0	1	-360	360;
	214	217	0.0049	0.0388	0.475	0	0	0	0	0	1	-360	360;
	215	216	0.0051	0.0403	0.494	0	0	0	0	0	1	-360	360;
	215	216	0.0051	0.0403	0.494	0	0	0	0	0	1	-360	360;
	215	217	0.0072	0.0574	0.703	0	0	0	0	0	1	-360	360;
	215	217	0.0072	0.0574	0.703	0	0	0	0	0	1	-360	360;
	216	217	0.0051	0.0403	0.494	0	0	0	0	0	1	-360	360;
	303	304	0.002	0.028	0.74	0	0	0	0	0	1	-360	360;
	303	304	0.002	0.028	0.74	0	0	0	0	0	1	-360	360;
	303	305	0.0011	0.016	1.7	0	0	0	0	0	1	-360	360;
	303	305	0.0011	0.016	1.7	0	0	0	0	0	1	-360	360;
	304	305	0.0003	0.004	0.424	0	0	0	0	0	1	-360	360;
	305	306	0.0002	0.003	0.32	0	0	0	0	0	1	-360	360;
	305	307	0.0003	0.0045	0.447	0	0	0	0	0	1	-360	360;
	305	307	0.0003	0.0045	0.447	0	0	0	0	0	1	-360	360;
	306	307	0.0001	0.0012	0.127	0	0	0	0	0	1	-360	360;
	307	308	0.0023	0.0325	3.445	0	0	0	0	0	1	-360	360;
	307	308	0.0023	0.0325	3.445	0	0	0	0	0	1	-360	360;
	309	310	0.0135	0.10695	0.58267	0	0	0	0	0	1	-360	360;
	309	310	0.0135	0.10695	0.58267	0	0	0	0	0	1	-360	360;
	309	310	0.0135	0.10695	0.58267	0	0	0	0	0	1	-360	360;
	310	311	0	-0.0337	0	0	0	0	0	0	1	-360	360;
	310	311	0	-0.0337	0	0	0	0	0	0	1	-360	360;
	312	313	0.006	0.045	0.3	0	0	0	0	0	1	-360	360;
	312	313	0.006	0.045	0.3	0	0	0	0	0	1	-360	360;
	312	313	0.006	0.045	0.3	0	0	0	0	0	1	-360	360;
	313	314	0.001	0.01	0.26	0	0	0	0	0	1	-360	360;
	313	314	0.001	0.01	0.26	0	0	0	0	0	1	-360	360;
	315	509	0.007	0.05	0.19	0	0	0	0	0	1	-360	360;
	315	509	0.007	0.05	0.19	0	0	0	0	0	1	-360	360;
	405	406	0.0039	0.0475	0.381	0	0	0	0	0	1	-360	360;
	405	406	0.0039	0.0475	0.381	0	0	0	0	0	1	-360	360;
	405	408	0.0054	0.05	0.189	0	0	0	0	0	1	-360	360;
	405	409	0.018	0.122	0.79	0	0	0	0	0	1	-360	360;
	405	409	0.018	0.122	0.79	0	0	0	0	0	1	-360	360;
	405	409	0.018	0.122	0.79	0	0	0	0	0	1	-360	360;
	406	407	0.0006	0.0076	0.062	0	0	0	0	0	1	-360	360;
	406	407	0.0006	0.0076	0.062	0	0	0	0	0	1	-360	360;
	407	408	0.0042	0.0513	0.412	0	0	0	0	0	1	-360	360;
	408	410	0.0165	0.192	0.67333	0	0	0	0	0	1	-360	360;
	408	410	0.0165	0.192	0.67333	0	0	0	0	0	1	-360	360;
	408	410	0.0165	0.192	0.67333	0	0	0	0	0	1	-360	360;
	409	411	0.0103	0.0709	0.46	0	0	0	0	0	1	-360	360;
	409	411	0.0103	0.0709	0.46	0	0	0	0	0	1	-360	360;
	410	411	0.0043	0.0532	0.427	0	0	0	0	0	1	-360	360;
	410	412	0.0043	0.0532	0.427	0	0	0	0	0	1	-360	360;
	410	412	0.0043	0.0532	0.427	0	0	0	0	0	1	-360	360;
	410	412	0.0043	0.0532	0.427	0	0	0	0	0	1	-360	360;
	410	412	0.0043	0.0532	0.427	0	0	0	0	0	1	-360	360;
	410	413	0.004	0.0494	0.4	0	0	0	0	0	1	-360	360;
	410	413	0.004	0.0494	0.4	0	0	0	0	0	1	-360	360;
	411	412	0.0012	0.0152	0.122	0	0	0	0	0	1	-360	360;
	411	412	0.0012	0.0152	0.122	0	0	0	0	0	1	-360	360;
	414	415	0.002	0.025	0.39	0	0	0	0	0	1	-360	360;
	414	415	0.002	0.025	0.39	0	0	0	0	0	1	-360	360;
	415	416	0.0037	0.046	0.73	0	0	0	0	0	1	-360	360;
	415	416	0.0037	0.046	0.73	0	0	0	0	0	1	-360	360;
	504	507	0.023	0.15	0.56	0	0	0	0	0	1	-360	360;
	504	507	0.023	0.15	0.56	0	0	0	0	0	1	-360	360;
	504	508	0.026	0.019	0.87	0	0	0	0	0	1	-360	360;
	504	508	0.026	0.019	0.87	0	0	0	0	0	1	-360	360;
	505	507	0.0016	0.017	0.03	0	0	0	0	0	1	-360	360;
	505	507	0.0016	0.017	0.03	0	0	0	0	0	1	-360	360;
	505	508	0.0025	0.028	0.17	0	0	0	0	0	1	-360	360;
	506	507	0.0016	0.017	0.03	0	0	0	0	0	1	-360	360;
	506	507	0.0016	0.017	0.03	0	0	0	0	0	1	-360	360;
	506	508	0.003	0.028	0.14	0	0	0	0	0	1	-360	360;
	507	508	0.002	0.019	0.09	0	0	0	0	0	1	-360	360;
	507	509	0.09	0.66	0.3	0	0	0	0	0	1	-360	360;
	507	509	0.09	0.66	0.3	0	0	0	0	0	1	-360	360;
	507	509	0.09	0.66	0.3	0	0	0	0	0	1	-360	360;
	507	509	0.09	0.66	0.3	0	0	0	0	0	1	-360	360;
	507	509	0.09	0.66	0.3	0	0	0	0	0	1	-360	360;
	507	509	0.09	0.66	0.3	0	0	0	0	0	1	-360	360;
	101	102	0	0.012	0	0	0	0	1	0	1	-360	360;
	201	206	0	0.0048	0	0	0	0	0.9709	0	1	-360	360;
	202	209	0	0.0072	0	0	0	0	0.9709	0	1	-360	360;
	203	208	0	0.0153	0	0	0	0	0.9709	0	1	-360	360;
	204	215	0	0.006	0	0	0	0	0.9709	0	1	-360	360;
	209	210	0	0.0272	0	0	0	0	0.9756	0	1	-360	360;
	209	210	0	0.0272	0	0	0	0	0.9756	0	1	-360	360;
	209	210	0	0.0272	0	0	0	0	0.9756	0	1	-360	360;
	209	210	0	0.0272	0	0	0	0	0.9756	0	1	-360	360;
	213	214	0	0.0272	0	0	0	0	1	0	1	-360	360;
	213	214	0	0.0272	0	0	0	0	1	0	1	-360	360;
	213	214	0	0.0272	0	0	0	0	1	0	1	-360	360;
	213	214	0	0.0272	0	0	0	0	1	0	1	-360	360;
	301	303	0	0.003	0	0	0	0	0.9615	0	1	-360	360;
	302	312	0	0.01127	0	0	0	0	0.9615	0	1	-360	360;
	304	313	0	0.032	0	0	0	0	0.9615	0	1	-360	360;
	304	313	0	0.032	0	0	0	0	0.9615	0	1	-360	360;
	305	311	0	0.036	0	0	0	0	1	0	1	-360	360;
	305	311	0	0.036	0	0	0	0	1	0	1	-360	360;
	305	311	0	0.036	0	0	0	0	1	0	1	-360	360;
	305	314	0	0.024	0	0	0	0	1	0	1	-360	360;
	305	314	0	0.024	0	0	0	0	1	0	1	-360	360;
	308	315	0	0.027	0	0	0	0	1	0	1	-360	360;
	308	315	0	0.027	0	0	0	0	1	0	1	-360	360;
	401	410	0	0.00845	0	0	0	0	0.9524	0	1	-360	360;
	402	408	0	0.017	0	0	0	0	0.9524	0	1	-360	360;
	403	407	0	0.00845	0	0	0	0	0.9524	0	1	-360	360;
	404	405	0	0.0102	0	0	0	0	0.9524	0	1	-360	360;
	413	414	0	0.008	0	0	0	0	1.015	0	1	-360	360;
	413	414	0	0.008	0	0	0	0	1.015	0	1	-360	360;
	413	414	0	0.008	0	0	0	0	1.015	0	1	-360	360;
	501	504	0	0.0255	0	0	0	0	0.9852	0	1	-360	360;
	502	505	0	0.016	0	0	0	0	0.995	0	1	-360	360;
	503	506	0	0.05	0	0	0	0	0.9852	0	1	-360	360;
];

%% bus names
mpc.bus_name = {
	'1_HPSGEN';
	'1_HPS330';
	'2_BPSGEN';
	'2_EPSGEN';
	'2_VPSGEN';
	'2_MPSGEN';
	'2_ASV330';
	'2_BPS330';
	'2_N__330';
	'2_VPS330';
	'2_EPS330';
	'2_EPS500';
	'2_SN_330';
	'2_SW_330';
	'2_K__500';
	'2_K__330';
	'2_MPS330';
	'2_SS_330';
	'2_YC_330';
	'3_LPSGEN';
	'3_YPSGEN';
	'3_LPS500';
	'3_R__500';
	'3_SM_500';
	'3_K__500';
	'3_M__500';
	'3_H__500';
	'3_D__330';
	'3_SS_330';
	'3_SM_330';
	'3_YPS220';
	'3_RSV220';
	'3_SM_220';
	'3_H__275';
	'4_TPSGEN';
	'4_CPSGEN';
	'4_SPSGEN';
	'4_GPSGEN';
	'4_GPS275';
	'4_N__275';
	'4_SPS275';
	'4_CPS275';
	'4_W__275';
	'4_TPS275';
	'4_SP_275';
	'4_BW_275';
	'4_BR_275';
	'4_BR_330';
	'4_BU_330';
	'4_DU_330';
	'5_NPSGEN';
	'5_TPSGEN';
	'5_PPSGEN';
	'5_D__275';
	'5_TPS275';
	'5_PPS275';
	'5_PSV275';
	'5_CG_275';
	'5_SSV275';
};
